Circuit: * C:\Users\Dougl\OneDrive\Ham Radio\KiCad Files\W7ZOI Spectrum Analyzer\2ndmixer-2ndlo\2ndmixer-2ndlo\2ndmixer-2ndlo-spice\2nd-lo.asc

R1: both pins shorted together -- ignoring.
WARNING: Node N006 is floating.

WARNING: Less than two connections to node N006.  This node is used by C206.
Direct Newton iteration for .op point succeeded.

Date: Sun Aug 06 16:50:46 2023
Total elapsed time: 0.115 seconds.

tnom = 27
temp = 27
method = modified trap
totiter = 7932
traniter = 7924
tranpoints = 2904
accept = 2091
rejected = 813
matrix size = 13
fillins = 6
solver = Normal
Matrix Compiler1: 1.16 KB object code size  0.2/0.1/[0.1]
Matrix Compiler2: off  [0.1]/0.1/0.1

