Circuit: * C:\Users\Dougl\OneDrive\Ham Radio\KiCad Files\W7ZOI Spectrum Analyzer\2ndmixer-2ndlo\2ndmixer-2ndlo\2ndmixer-2ndlo-spice\2nd-lo.asc

WARNING: Node OUT is floating.

Direct Newton iteration for .op point succeeded.

Date: Sun Aug 06 11:02:01 2023
Total elapsed time: 0.063 seconds.

tnom = 27
temp = 27
method = modified trap
totiter = 262
traniter = 254
tranpoints = 128
accept = 128
rejected = 0
matrix size = 12
fillins = 8
solver = Normal
Matrix Compiler1: 1.19 KB object code size  0.5/0.3/[0.1]
Matrix Compiler2: 1.08 KB object code size  0.3/0.3/[0.1]

