Circuit: * C:\Users\Dougl\OneDrive\Ham Radio\KiCad Files\W7ZOI Spectrum Analyzer\2ndmixer-2ndlo\2ndmixer-2ndlo\2ndmixer-2ndlo-spice\2nd-lo.asc

R1: both pins shorted together -- ignoring.
L202: both pins shorted together -- ignoring.
WARNING: Node N007 is floating.
WARNING: Node OUT2 is floating.

WARNING: Less than two connections to node N007.  This node is used by C1.
Direct Newton iteration for .op point succeeded.

Date: Sun Aug 06 13:48:14 2023
Total elapsed time: 0.265 seconds.

tnom = 27
temp = 27
method = modified trap
totiter = 37176
traniter = 37168
tranpoints = 13131
accept = 8993
rejected = 4138
matrix size = 14
fillins = 6
solver = Normal
Matrix Compiler1: 1.17 KB object code size  0.2/0.1/[0.1]
Matrix Compiler2: 1.15 KB object code size  0.1/0.1/[0.1]

