Circuit: * C:\Users\Dougl\OneDrive\Ham Radio\KiCad Files\W7ZOI Spectrum Analyzer\2ndmixer-2ndlo\2ndmixer-2ndlo\2ndmixer-2ndlo-spice\2ndmixer-2ndlo.asc

WARNING: Node N007 is floating.

Direct Newton iteration for .op point succeeded.
.step x=1.2e-011
.step x=1.3e-011
.step x=1.4e-011
.step x=1.5e-011
.step x=1.6e-011
.step x=1.7e-011
.step x=1.8e-011
.step x=1.9e-011
.step x=2e-011
.step x=2.1e-011
.step x=2.2e-011
.step x=2.3e-011
.step x=2.4e-011
.step x=2.5e-011
.step x=2.6e-011
.step x=2.7e-011
.step x=2.8e-011
.step x=2.9e-011
.step x=3e-011
.step x=3.1e-011
.step x=3.2e-011
.step x=3.3e-011
.step x=3.4e-011
.step x=3.5e-011
.step x=3.6e-011
.step x=3.7e-011
.step x=3.8e-011
.step x=3.9e-011
.step x=4e-011
.step x=4.1e-011
.step x=4.2e-011
.step x=4.3e-011
.step x=4.4e-011
.step x=4.5e-011
.step x=4.6e-011
.step x=4.7e-011
.step x=4.8e-011
.step x=4.9e-011
.step x=5e-011
.step x=5.1e-011
.step x=5.2e-011
.step x=5.3e-011
.step x=5.4e-011
.step x=5.5e-011
.step x=5.6e-011
.step x=5.7e-011
.step x=5.8e-011
.step x=5.9e-011
.step x=6e-011

Date: Wed Mar 08 19:11:19 2023
Total elapsed time: 2.204 seconds.

tnom = 27
temp = 27
method = modified trap
totiter = 2147
traniter = 2142
tranpoints = 1072
accept = 1067
rejected = 5
matrix size = 13
fillins = 8
solver = Normal
Matrix Compiler1: 1.24 KB object code size  0.2/0.1/[0.1]
Matrix Compiler2: 1.15 KB object code size  0.1/0.2/[0.1]

