Circuit: * C:\Users\Dougl\OneDrive\Ham Radio\KiCad Files\W7ZOI Spectrum Analyzer\2ndmixer-2ndlo\2ndmixer-2ndlo\2ndmixer-2ndlo-spice\self-osc-example.asc

Direct Newton iteration for .op point succeeded.

Date: Wed Mar 08 19:30:14 2023
Total elapsed time: 0.505 seconds.

tnom = 27
temp = 27
method = modified trap
totiter = 131274
traniter = 131270
tranpoints = 41242
accept = 27813
rejected = 13429
matrix size = 8
fillins = 2
solver = Normal
Matrix Compiler1: 676 bytes object code size  0.1/0.1/[0.1]
Matrix Compiler2: 710 bytes object code size  0.1/0.1/[0.1]

