Circuit: .title KiCad schematic

WARNING: Less than two connections to node OUT.  This node is used by R416.
Early termination of direct N-R iteration.
Direct Newton iteration failed to find .op point.  (Use ".option noopiter" to skip.)
Starting Gmin stepping
Gmin = 10
vernier = 0.5
vernier = 0.25
vernier = 0.125
Gmin = 6.68666
vernier = 0.0625
vernier = 0.03125
vernier = 0.015625
vernier = 0.0078125
Gmin = 6.72377
vernier = 0.00390625
vernier = 0.00195313
vernier = 0.000976563
vernier = 0.000488281
Gmin = 6.72131
Gmin = 0
Gmin stepping failed

Starting source stepping with srcstepmethod=0
Source Step = 3.0303%
Source Step = 12.1212%
Source Step = 19.697%
Source Step = 27.2727%
Source Step = 34.8485%
Source Step = 42.4242%
vernier = 0.375
Source Step = 52.6515%
Source Step = 64.0152%
Source Step = 75.3788%
Source Step = 86.7424%
Source Step = 98.1061%
Source stepping succeeded in finding the operating point.

Ignoring empty pin current: Ix(u1a:1)
Ignoring empty pin current: Ix(u1a:2)
Ignoring empty pin current: Ix(u1a:3)
Ignoring empty pin current: Ix(u1a:4)
Ignoring empty pin current: Ix(u1a:5)
Ignoring empty pin current: Ix(u1b:1)
Ignoring empty pin current: Ix(u1b:2)
Ignoring empty pin current: Ix(u1b:3)
Ignoring empty pin current: Ix(u1b:4)
Ignoring empty pin current: Ix(u1b:5)
Ignoring empty pin current: Ix(u401:1out)
Ignoring empty pin current: Ix(u401:1in-)
Ignoring empty pin current: Ix(u401:1in+)
Ignoring empty pin current: Ix(u401:vcc-)
Ignoring empty pin current: Ix(u401:2in+)
Ignoring empty pin current: Ix(u401:2in-)
Ignoring empty pin current: Ix(u401:2out)
Ignoring empty pin current: Ix(u401:vcc+)
Ignoring empty pin current: Ix(u403:1out)
Ignoring empty pin current: Ix(u403:1in-)
Ignoring empty pin current: Ix(u403:1in+)
Ignoring empty pin current: Ix(u403:vcc-)
Ignoring empty pin current: Ix(u403:2in+)
Ignoring empty pin current: Ix(u403:2in-)
Ignoring empty pin current: Ix(u403:2out)
Ignoring empty pin current: Ix(u403:vcc+)
Ignoring empty pin current: Ix(u402:1out)
Ignoring empty pin current: Ix(u402:1in-)
Ignoring empty pin current: Ix(u402:1in+)
Ignoring empty pin current: Ix(u402:vcc-)
Ignoring empty pin current: Ix(u402:2in+)
Ignoring empty pin current: Ix(u402:2in-)
Ignoring empty pin current: Ix(u402:2out)
Ignoring empty pin current: Ix(u402:vcc+)
Ignoring empty pin current: Ix(u1a:1)
Ignoring empty pin current: Ix(u1a:2)
Ignoring empty pin current: Ix(u1a:3)
Ignoring empty pin current: Ix(u1a:4)
Ignoring empty pin current: Ix(u1a:5)
Ignoring empty pin current: Ix(u1b:1)
Ignoring empty pin current: Ix(u1b:2)
Ignoring empty pin current: Ix(u1b:3)
Ignoring empty pin current: Ix(u1b:4)
Ignoring empty pin current: Ix(u1b:5)
Ignoring empty pin current: Ix(u401:1out)
Ignoring empty pin current: Ix(u401:1in-)
Ignoring empty pin current: Ix(u401:1in+)
Ignoring empty pin current: Ix(u401:vcc-)
Ignoring empty pin current: Ix(u401:2in+)
Ignoring empty pin current: Ix(u401:2in-)
Ignoring empty pin current: Ix(u401:2out)
Ignoring empty pin current: Ix(u401:vcc+)
Ignoring empty pin current: Ix(u403:1out)
Ignoring empty pin current: Ix(u403:1in-)
Ignoring empty pin current: Ix(u403:1in+)
Ignoring empty pin current: Ix(u403:vcc-)
Ignoring empty pin current: Ix(u403:2in+)
Ignoring empty pin current: Ix(u403:2in-)
Ignoring empty pin current: Ix(u403:2out)
Ignoring empty pin current: Ix(u403:vcc+)
Ignoring empty pin current: Ix(u402:1out)
Ignoring empty pin current: Ix(u402:1in-)
Ignoring empty pin current: Ix(u402:1in+)
Ignoring empty pin current: Ix(u402:vcc-)
Ignoring empty pin current: Ix(u402:2in+)
Ignoring empty pin current: Ix(u402:2in-)
Ignoring empty pin current: Ix(u402:2out)
Ignoring empty pin current: Ix(u402:vcc+)
Heightened Def Con from 1.29961e-008 ++++++++++++++++++++++++++++++++++++