LTspice 24.0.12 for Windows
Circuit: * C:\Users\Dougl\OneDrive\Ham Radio\KiCad Files\W7ZOI Spectrum Analyzer\70mhz-lpf\70mhz-lpf\70mhz-lpf.asc
Start Time: Sat Jan 18 12:09:51 2025
solver = Normal
Maximum thread count: 8
tnom = 27
temp = 27
method = modified trap
.OP point found by inspection.
Total elapsed time: 0.113 seconds.

