Circuit: * Z:\home\doug\OneDrive\Ham Radio\KiCad Files\W7ZOI Spectrum Analyzer\70mhz-lpf\70mhz-lpf\70mhz-lpf.asc


Date: Mon Dec 11 13:34:32 2023
Total elapsed time: 0.115 seconds.

tnom = 27
temp = 27
method = trap
totiter = 0
traniter = 0
tranpoints = 0
accept = 0
rejected = 0
matrix size = 5
fillins = 0
solver = Normal

