LTspice 24.0.12 for Windows
Circuit: * C:\Users\Dougl\OneDrive\Ham Radio\KiCad Files\W7ZOI Spectrum Analyzer\vco-1stmixer\vco-1stmixer\vco-1stmixer-spice\mixer.asc
Start Time: Mon Jan 27 19:15:20 2025
solver = Normal
Maximum thread count: 8
tnom = 27
temp = 27
method = modified trap
.OP point found by inspection.
Total elapsed time: 0.085 seconds.

