Circuit: * C:\Users\Dougl\OneDrive\Ham Radio\KiCad Files\W7ZOI Spectrum Analyzer\7mhz-crystal-oscillator\7mhz oscillator.asc

WARNING: Node OUT is floating.

WARNING: Less than two connections to node OUT.  This node is used by C1.
Direct Newton iteration for .op point succeeded.

Date: Sun Jan 28 06:12:51 2024
Total elapsed time: 2.019 seconds.

tnom = 27
temp = 27
method = modified trap
totiter = 320141
traniter = 320134
tranpoints = 160068
accept = 139942
rejected = 20126
matrix size = 10
fillins = 4
solver = Normal
Matrix Compiler1:      50 opcodes  0.2/[0.1]/0.1
Matrix Compiler2: 890 bytes object code size  0.1/0.1/[0.1]

