Circuit: * C:\Users\Dougl\OneDrive\Ham Radio\KiCad Files\W7ZOI Spectrum Analyzer\if-and-log-amp\if-and-log-amp\if-log-amp-spice\10mhz-filter.asc


Date: Sun Jun 19 08:47:49 2022
Total elapsed time: 0.119 seconds.

tnom = 27
temp = 27
method = trap
totiter = 0
traniter = 0
tranpoints = 0
accept = 0
rejected = 0
matrix size = 4
fillins = 0
solver = Normal

