Circuit: * C:\Users\Dougl\Downloads\10mhz-filter.asc


Date: Thu Jul 21 08:03:38 2022
Total elapsed time: 0.527 seconds.

tnom = 27
temp = 27
method = trap
totiter = 0
traniter = 0
tranpoints = 0
accept = 0
rejected = 0
matrix size = 5
fillins = 0
solver = Normal

