Circuit: * AD603A SPICE Macro-model Rev. A, 12/94

Fatal Error: No analysis request found.
