Circuit: * C:\Users\Dougl\OneDrive\Ham Radio\KiCad Files\W7ZOI Spectrum Analyzer\if-and-log-amp\if-and-log-amp\if-log-amp-spice\IF and Log Amplifier.asc

WARNING: Less than two connections to node NC_01.  This node is used by V:U3:5.
WARNING: Less than two connections to node OUT.  This node is used by R14.
Direct Newton iteration failed to find .op point.  (Use ".option noopiter" to skip.)
Starting Gmin stepping
Gmin = 10
Gmin = 1.07374
Gmin = 0.115292
vernier = 0.5
vernier = 0.25
vernier = 0.125
Gmin = 0.077092
vernier = 0.0625
vernier = 0.03125
vernier = 0.015625
vernier = 0.0078125
Gmin = 0.0784247
vernier = 0.00390625
vernier = 0.00195313
vernier = 0.000976563
vernier = 0.000488281
Gmin = 0.0783291
Gmin = 0
Gmin stepping failed

Starting source stepping with srcstepmethod=0
Source Step = 3.0303%
Source Step = 33.3333%
Source Step = 51.5625%
vernier = 0.00390625
Starting source stepping with srcstepmethod=1
Source Step = 3.0303%
vernier = 0.25
Source stepping failed

Pseudo Transient succeeded in finding the operating point at 4.27903 s.
Ignoring empty pin current: Ix(u1:1)
Ignoring empty pin current: Ix(u1:2)
Ignoring empty pin current: Ix(u1:3)
Ignoring empty pin current: Ix(u1:4)
Ignoring empty pin current: Ix(u1:5)
Ignoring empty pin current: Ix(u1:1)
Ignoring empty pin current: Ix(u1:2)
Ignoring empty pin current: Ix(u1:3)
Ignoring empty pin current: Ix(u1:4)
Ignoring empty pin current: Ix(u1:5)
Heightened Def Con from 5.71118e-005 to 5.71118e-005

Date: Sun Jun 19 09:10:27 2022
Total elapsed time: 26.453 seconds.

tnom = 27
temp = 27
method = modified trap
totiter = 565235
traniter = 556843
tranpoints = 127678
accept = 90331
rejected = 37370
matrix size = 173
fillins = 413
solver = Normal
Thread vector: 37.0/29.4[3] 7.2/2.6[3] 12.5/7.1[3] 1.9/2.7[1]  2592/500
Matrix Compiler1: 45.28 KB object code size  6.3/3.1/[1.7]
Matrix Compiler2: 22.22 KB object code size  5.4/5.3/[1.8]

