Circuit: * C:\Users\Dougl\OneDrive\Ham Radio\KiCad Files\W7ZOI Spectrum Analyzer\if-and-log-amp\if-and-log-amp\if-log-amp-spice\IF and Log Amplifier.asc

WARNING: Node N005 is floating.

WARNING: Less than two connections to node NC_01.  This node is used by V:U3:5.
WARNING: Less than two connections to node OUT.  This node is used by R14.
Direct Newton iteration failed to find .op point.  (Use ".option noopiter" to skip.)
Starting Gmin stepping
Gmin = 10
Gmin = 1.07374
Gmin = 0.115292
vernier = 0.5
vernier = 0.25
vernier = 0.125
Gmin = 0.077092
vernier = 0.0625
vernier = 0.03125
vernier = 0.015625
vernier = 0.0078125
Gmin = 0.0784247
vernier = 0.00390625
vernier = 0.00195313
vernier = 0.000976563
vernier = 0.000488281
Gmin = 0.0783291
Gmin = 0
Gmin stepping failed

Starting source stepping with srcstepmethod=0
Source Step = 3.0303%
Source Step = 33.3333%
Source Step = 51.5625%
vernier = 0.00390625
Starting source stepping with srcstepmethod=1
Source Step = 3.0303%
vernier = 0.25
Source stepping failed

Pseudo transient terminated at 101.52 s, solution accepted ready or not!
Ignoring empty pin current: Ix(u1:1)
Ignoring empty pin current: Ix(u1:2)
Ignoring empty pin current: Ix(u1:3)
Ignoring empty pin current: Ix(u1:4)
Ignoring empty pin current: Ix(u1:5)
Ignoring empty pin current: Ix(u1:1)
Ignoring empty pin current: Ix(u1:2)
Ignoring empty pin current: Ix(u1:3)
Ignoring empty pin current: Ix(u1:4)
Ignoring empty pin current: Ix(u1:5)

Date: Wed Jun 15 07:13:24 2022
Total elapsed time: 4.881 seconds.

tnom = 27
temp = 27
method = modified trap
totiter = 225258
traniter = 216988
tranpoints = 53419
accept = 37343
rejected = 16094
matrix size = 173
fillins = 436
solver = Normal
Thread vector: 11.5/7.7[3] 3.2/2.2[3] 6.3/3.2[3] 0.8/1.4[1]  2592/500
Matrix Compiler1: 47.19 KB object code size  5.9/2.8/[1.4]
Matrix Compiler2: 22.58 KB object code size  1.9/2.6/[0.7]

