Circuit: * C:\Users\Dougl\OneDrive\Ham Radio\KiCad Files\W7ZOI Spectrum Analyzer\if-and-log-amp\if-and-log-amp\if-log-amp-spice\IF and Log Amplifier.asc

WARNING: Less than two connections to node NC_01.  This node is used by V:U3:5.
WARNING: Less than two connections to node OUT.  This node is used by R14.
Direct Newton iteration failed to find .op point.  (Use ".option noopiter" to skip.)
Starting Gmin stepping
Gmin = 10
Gmin = 1.07374
Gmin = 0.115292
vernier = 0.5
vernier = 0.25
vernier = 0.125
Gmin = 0.077092
vernier = 0.0625
vernier = 0.03125
vernier = 0.015625
vernier = 0.0078125
Gmin = 0.0784247
vernier = 0.00390625
vernier = 0.00195313
vernier = 0.000976563
vernier = 0.000488281
Gmin = 0.0783291
Gmin = 0
Gmin stepping failed

Starting source stepping with srcstepmethod=0
Source Step = 3.0303%
Source Step = 33.3333%
Source Step = 63.6364%
Source Step = 68.6553%
Source Step = 68.7411%
Source Step = 68.7707%
Source Step = 68.8003%
Source Step = 68.8299%
Source Step = 68.8595%
vernier = 0.00146484
Source Step = 68.895%
Source Step = 68.9394%
Source Step = 68.9838%
Source Step = 69.0282%
Source Step = 69.0726%
vernier = 0.00219727
Source Step = 69.1236%
Source Step = 69.1902%
Source Step = 69.2568%
Source Step = 69.3234%
Source Step = 69.3899%
vernier = 0.0032959
Source Step = 69.4632%
Source Step = 69.5631%
Source Step = 69.6629%
Source Step = 69.7628%
Source Step = 69.8627%
vernier = 0.00494385
Source Step = 69.9676%
Source Step = 70.1174%
Source Step = 70.2672%
Source Step = 70.417%
Source Step = 70.5668%
Source Step = 70.7166%
vernier = 0.00741577
Source Step = 70.9413%
Source Step = 71.1661%
Source Step = 71.3908%
Source Step = 71.6155%
Source Step = 71.8402%
vernier = 0.0111237
Source Step = 72.1661%
Source Step = 72.5032%
Source Step = 72.8402%
Source Step = 73.1773%
Source Step = 73.5144%
vernier = 0.0166855
Source Step = 73.9863%
Source Step = 74.4919%
Source Step = 74.9975%
Source Step = 75.5032%
Source Step = 76.0088%
vernier = 0.0250282
Source Step = 76.6914%
Source Step = 77.4498%
Source Step = 78.2082%
Source Step = 78.9667%
Source Step = 79.7251%
vernier = 0.0375423
Source Step = 80.7111%
Source Step = 81.8487%
Source Step = 82.9864%
Source Step = 84.124%
Source Step = 85.2617%
vernier = 0.0563135
Source Step = 86.6837%
Source Step = 88.3902%
Source Step = 90.0966%
Source Step = 91.8031%
Source Step = 93.5096%
vernier = 0.0844703
Source Step = 95.5574%
Source Step = 98.1171%
Source stepping succeeded in finding the operating point.

Ignoring empty pin current: Ix(u1:1)
Ignoring empty pin current: Ix(u1:2)
Ignoring empty pin current: Ix(u1:3)
Ignoring empty pin current: Ix(u1:4)
Ignoring empty pin current: Ix(u1:5)
Ignoring empty pin current: Ix(u1:1)
Ignoring empty pin current: Ix(u1:2)
Ignoring empty pin current: Ix(u1:3)
Ignoring empty pin current: Ix(u1:4)
Ignoring empty pin current: Ix(u1:5)
Heightened Def Con from 1.00937e-006 to 1.00937e-006
Heightened Def Con from 3.92948e-005 to 3.92948e-005

Date: Sat Jun 18 20:58:23 2022
Total elapsed time: 5.085 seconds.

tnom = 27
temp = 27
method = modified trap
totiter = 222836
traniter = 218530
tranpoints = 45911
accept = 32951
rejected = 12962
matrix size = 171
fillins = 423
solver = Normal
Thread vector: 13.8/7.0[3] 7.8/3.2[3] 5.8/4.1[3] 0.9/1.2[1]  2592/500
Matrix Compiler1: 47.18 KB object code size  11.1/5.8/[1.8]
Matrix Compiler2: 22.25 KB object code size  2.1/2.5/[0.9]

