Circuit: * C:\Users\Dougl\OneDrive\Ham Radio\KiCad Files\W7ZOI Spectrum Analyzer\15v-supply\15v-supply-spice\15v-supply.asc

.OP point found by inspection.

Date: Wed Jun 15 16:27:07 2022
Total elapsed time: 0.400 seconds.

tnom = 27
temp = 27
method = modified trap
totiter = 8864
traniter = 8864
tranpoints = 3593
accept = 2771
rejected = 822
matrix size = 79
fillins = 138
solver = Normal
Thread vector: 15.6/7.8[5] 8.6/3.0[5] 4.2/1.8[5] 0.5/1.4[1]  2592/500
Matrix Compiler1: 19.41 KB object code size  3.4/1.7/[1.2]
Matrix Compiler2: 10.42 KB object code size  0.8/1.1/[0.6]

