Circuit: * C:\Users\Dougl\OneDrive\Ham Radio\KiCad Files\W7ZOI Spectrum Analyzer\15v-supply\15v-supply-spice\15v-supply.asc

.OP point found by inspection.

Date: Fri Jul 15 17:52:32 2022
Total elapsed time: 0.343 seconds.

tnom = 27
temp = 27
method = modified trap
totiter = 8864
traniter = 8864
tranpoints = 3593
accept = 2771
rejected = 822
matrix size = 79
fillins = 138
solver = Normal
Thread vector: 15.6/6.4[5] 5.5/2.3[5] 3.3/1.4[5] 0.4/1.1[1]  2592/500
Matrix Compiler1: 19.41 KB object code size  2.5/1.3/[0.9]
Matrix Compiler2: 10.42 KB object code size  0.6/0.9/[0.5]

