Circuit: * C:\Users\Dougl\OneDrive\Ham Radio\KiCad Files\W7ZOI Spectrum Analyzer\LTSpice Files\10MHz Filter.asc

WARNING: Node OUT is floating.

WARNING: Less than two connections to node OUT.  This node is used by C4.
.OP point found by inspection.

Date: Mon May 30 19:34:02 2022
Total elapsed time: 0.374 seconds.

tnom = 27
temp = 27
method = modified trap
totiter = 24608
traniter = 24608
tranpoints = 12305
accept = 8181
rejected = 4124
matrix size = 5
fillins = 0
solver = Normal
Matrix Compiler1:       9 opcodes  0.1/[0.0]/0.0
Matrix Compiler2:      27 opcodes  0.0/[0.0]/0.1

