Circuit: * C:\Users\Dougl\OneDrive\Ham Radio\KiCad Files\W7ZOI Spectrum Analyzer\LTSpice Files\300khz bandwith 10mhz LC filter.asc

WARNING: Node N006 is floating.
WARNING: Node OUT is floating.

WARNING: Less than two connections to node OUT.  This node is used by C15.

Date: Mon May 30 20:40:13 2022
Total elapsed time: 0.063 seconds.

tnom = 27
temp = 27
method = trap
totiter = 0
traniter = 0
tranpoints = 0
accept = 0
rejected = 0
matrix size = 9
fillins = 1
solver = Normal

