Circuit: * C:\Users\Dougl\OneDrive\Ham Radio\KiCad Files\W7ZOI Spectrum Analyzer\LTSpice Files\Draft1.asc

WARNING: Node OUT is floating.

WARNING: Less than two connections to node OUT.  This node is used by C4.

Date: Mon May 30 19:15:32 2022
Total elapsed time: 0.036 seconds.

tnom = 27
temp = 27
method = trap
totiter = 0
traniter = 0
tranpoints = 0
accept = 0
rejected = 0
matrix size = 5
fillins = 0
solver = Normal

