Circuit: * C:\Users\Dougl\OneDrive\Ham Radio\KiCad Files\W7ZOI Spectrum Analyzer\LTSpice Files\IF and Log Amplifier.asc

WARNING: Node N004 is floating.
WARNING: Node OUT is floating.

WARNING: Less than two connections to node OUT.  This node is used by C8.
Early termination of direct N-R iteration.
Direct Newton iteration failed to find .op point.  (Use ".option noopiter" to skip.)
Starting Gmin stepping
Gmin = 10
Gmin = 1.07374
Gmin = 0.115292
Gmin = 0.0123794
Gmin = 0.00132923
Gmin = 0.000142725
Gmin = 1.5325e-005
Gmin = 1.6455e-006
Gmin = 1.76685e-007
Gmin = 1.89714e-008
Gmin = 2.03704e-009
Gmin = 2.18725e-010
Gmin = 2.34854e-011
Gmin = 2.52173e-012
Gmin = 2.70769e-013
Gmin = 0
Gmin stepping succeeded in finding the operating point.


Date: Mon May 30 19:28:26 2022
Total elapsed time: 0.348 seconds.

tnom = 27
temp = 27
method = modified trap
totiter = 13210
traniter = 12728
tranpoints = 4928
accept = 3216
rejected = 1712
matrix size = 102
fillins = 287
solver = Normal
Thread vector: 5.0/4.3[2] 3.9/1.9[2] 3.0/1.8[2] 0.5/1.0[1]  2592/500
Matrix Compiler1: 35.54 KB object code size  4.2/2.2/[1.1]
Matrix Compiler2: 15.43 KB object code size  1.5/1.6/[0.5]

