Circuit: * C:\Users\Dougl\OneDrive\Ham Radio\KiCad Files\W7ZOI Spectrum Analyzer\LTSpice Files\TimeBase.asc

WARNING: Less than two connections to node OUT.  This node is used by R416.
Direct Newton iteration failed to find .op point.  (Use ".option noopiter" to skip.)
Starting Gmin stepping
Gmin = 10
Gmin = 1.07374
Gmin = 0.115292
Gmin = 0.0123794
Gmin = 0.00132923
Gmin = 0.000142725
Gmin = 1.5325e-005
Gmin = 1.6455e-006
Gmin = 1.76685e-007
Gmin = 1.89714e-008
Gmin = 2.03704e-009
Gmin = 2.18725e-010
vernier = 0.5
vernier = 0.25
vernier = 0.125
vernier = 0.0625
vernier = 0.03125
Gmin = 8.95898e-011
vernier = 0.015625
vernier = 0.0078125
vernier = 0.00390625
vernier = 0.00195313
vernier = 0.000976563
vernier = 0.000488281
Gmin = 0
Gmin stepping failed

Starting source stepping with srcstepmethod=0
Source Step = 3.0303%
Source Step = 25.7576%
Source Step = 28.5985%
Source Step = 30.4924%
Source Step = 32.3864%
Source Step = 34.2803%
Source Step = 36.1742%
vernier = 0.09375
Source Step = 38.6364%
Source Step = 41.4773%
Source Step = 44.3182%
Source Step = 47.1591%
Source Step = 50%
vernier = 0.140625
Source Step = 53.5511%
Source Step = 57.8125%
Source Step = 62.0739%
Source Step = 66.3352%
Source Step = 70.5966%
vernier = 0.210938
Source Step = 75.7102%
Source Step = 82.1023%
Source Step = 88.4943%
Source Step = 89.1934%
Source Step = 89.2933%
Source Step = 89.3932%
Source Step = 89.4931%
Source Step = 89.593%
vernier = 0.00494385
Source Step = 89.6978%
Source Step = 89.8476%
Source Step = 89.9974%
Source Step = 90.0424%
Source Step = 90.0798%
Source Step = 90.1173%
Source Step = 90.1548%
Source Step = 90.1922%
Source Step = 90.2297%
Source Step = 90.2671%
Source Step = 90.3046%
Source Step = 90.342%
Source Step = 90.3795%
Source Step = 90.4169%
Source Step = 90.4544%
Source Step = 90.4918%
Source Step = 90.5293%
Source Step = 90.5667%
Source Step = 90.6042%
Source Step = 90.6416%
Source Step = 90.6791%
Source Step = 90.7166%
Source Step = 90.754%
Source Step = 90.7915%
Source Step = 90.8289%
Source Step = 90.8664%
Source Step = 90.9038%
Source Step = 90.9413%
Source Step = 90.9787%
Source Step = 91.0162%
Source Step = 91.0536%
Source Step = 91.0911%
Source Step = 91.1285%
Source Step = 91.166%
Source Step = 91.2034%
vernier = 0.00185394
Source Step = 91.2559%
Source Step = 91.3121%
Source Step = 91.3682%
Source Step = 91.4244%
Source Step = 91.4806%
vernier = 0.00278091
Source Step = 91.5564%
Source Step = 91.6407%
Source Step = 91.725%
Source Step = 91.8093%
Source Step = 91.8935%
vernier = 0.00417137
Source Step = 92.0031%
Source Step = 92.1295%
Source Step = 92.2559%
Source Step = 92.3823%
Source Step = 92.5087%
vernier = 0.00625706
Source Step = 92.6667%
Source Step = 92.8563%
Source Step = 93.0459%
Source Step = 93.2355%
Source Step = 93.4251%
vernier = 0.00938559
Source Step = 93.6527%
Source Step = 93.9371%
Source Step = 94.2215%
Source Step = 94.5059%
Source Step = 94.7903%
vernier = 0.0140784
Source Step = 95.1174%
Source Step = 95.544%
Source Step = 95.9706%
Source Step = 96.3972%
Source Step = 96.8239%
vernier = 0.0211176
Source Step = 97.2931%
Source Step = 97.9331%
Source Step = 98.573%
Source Step = 99.2129%
Source Step = 99.8528%
Source stepping succeeded in finding the operating point.


Date: Fri Jun 17 20:59:17 2022
Total elapsed time: 7907.095 seconds.

tnom = 27
temp = 27
method = modified trap
totiter = 210802000
traniter = 210779424
tranpoints = 70281002
accept = 49525348
rejected = 20755654
matrix size = 59
fillins = 124
solver = Normal
Thread vector: 11.4/6.0[5] 4.7/2.3[5] 2.4/1.4[5] 0.6/1.0[1]  2592/500
Matrix Compiler1: 13.64 KB object code size  2.8/1.2/[0.6]
Matrix Compiler2: 8.26 KB object code size  1.9/2.9/[0.8]

