Circuit: * C:\Users\Dougl\OneDrive\Ham Radio\LT Spice Files\W7ZOI Spectrum Analyzer\TimeBase_top_half.asc

WARNING: Less than two connections to node OUT.  This node is used by R416.
Direct Newton iteration failed to find .op point.  (Use ".option noopiter" to skip.)
Starting Gmin stepping
Gmin = 10
Gmin = 1.07374
Gmin = 0.115292
Gmin = 0.0123794
Gmin = 0.00132923
Gmin = 0.000142725
Gmin = 1.5325e-005
Gmin = 1.6455e-006
Gmin = 1.76685e-007
Gmin = 1.89714e-008
Gmin = 2.03704e-009
Gmin = 2.18725e-010
Gmin = 2.34854e-011
Gmin = 2.52173e-012
Gmin = 2.70769e-013
Gmin = 0
Gmin stepping succeeded in finding the operating point.


Date: Sat May 07 11:09:53 2022
Total elapsed time: 0.506 seconds.

tnom = 27
temp = 27
method = modified trap
totiter = 26244
traniter = 25853
tranpoints = 9374
accept = 7104
rejected = 2270
matrix size = 37
fillins = 39
solver = Normal
Thread vector: 9.0/6.1[3] 2.8/1.7[3] 2.0/3.5[1] 0.3/0.9[1]  2592/500
Matrix Compiler1: 5.67 KB object code size  2.6/0.8/[0.3]
Matrix Compiler2: 4.56 KB object code size  0.9/0.8/[0.3]

