Circuit: * C:\Users\Dougl\OneDrive\Ham Radio\KiCad Files\W7ZOI Spectrum Analyzer\2ndmixer-2ndlo\2ndmixer-2ndlo\2nd-lo-kanga\kanga-lo.asc

WARNING: Node N007 is floating.

Direct Newton iteration for .op point succeeded.

Date: Mon Sep 04 17:34:37 2023
Total elapsed time: 0.846 seconds.

tnom = 27
temp = 27
method = modified trap
totiter = 79853
traniter = 79848
tranpoints = 23293
accept = 17253
rejected = 6040
matrix size = 9
fillins = 0
solver = Normal
Matrix Compiler1:      33 opcodes  0.2/[0.1]/0.2
Matrix Compiler2: 715 bytes object code size  0.1/0.2/[0.1]

