Circuit: * C:\Users\Dougl\OneDrive\Ham Radio\KiCad Files\W7ZOI Spectrum Analyzer\2ndmixer-2ndlo\2ndmixer-2ndlo\2nd-lo-kanga\kanga-lo.asc

WARNING: Node N007 is floating.

Direct Newton iteration for .op point succeeded.

Date: Sun Oct 22 10:15:36 2023
Total elapsed time: 0.957 seconds.

tnom = 27
temp = 27
method = modified trap
totiter = 95202
traniter = 95197
tranpoints = 25830
accept = 18518
rejected = 7312
matrix size = 9
fillins = 0
solver = Normal
Matrix Compiler1: 590 bytes object code size  0.2/0.1/[0.1]
Matrix Compiler2: off  [0.1]/0.2/0.1

