Circuit: * C:\Users\Dougl\OneDrive\Ham Radio\KiCad Files\W7ZOI Spectrum Analyzer\15v-supply\15v-supply.asc

.OP point found by inspection.

Date: Thu Jun 09 04:02:45 2022
Total elapsed time: 0.374 seconds.

tnom = 27
temp = 27
method = modified trap
totiter = 8864
traniter = 8864
tranpoints = 3593
accept = 2771
rejected = 822
matrix size = 79
fillins = 138
solver = Normal
Thread vector: 24.0/15.8[5] 10.9/5.2[5] 7.7/4.9[5] 0.7/2.1[1]  2592/500
Matrix Compiler1: 19.41 KB object code size  5.5/3.4/[2.0]
Matrix Compiler2: 10.42 KB object code size  1.2/1.9/[0.9]

