Circuit: * C:\Users\Dougl\OneDrive\Ham Radio\KiCad Files\W7ZOI Spectrum Analyzer\resolution-filters\resolution-filters\resolution-filters-spice\300khz bandwith 10mhz LC filter.asc

R1: both pins shorted together -- ignoring.
R2: both pins shorted together -- ignoring.
R3: both pins shorted together -- ignoring.
R4: both pins shorted together -- ignoring.
R5: both pins shorted together -- ignoring.

Date: Sat Feb 10 17:01:44 2024
Total elapsed time: 0.042 seconds.

tnom = 27
temp = 27
method = trap
totiter = 0
traniter = 0
tranpoints = 0
accept = 0
rejected = 0
matrix size = 6
fillins = 0
solver = Normal

