Circuit: * C:\Users\Dougl\OneDrive\Ham Radio\KiCad Files\W7ZOI Spectrum Analyzer\resolution-filters\resolution-filters\resolution-filters-spice\300khz bandwith 10mhz LC filter.asc


Date: Sat Jan 21 14:34:55 2023
Total elapsed time: 0.148 seconds.

tnom = 27
temp = 27
method = trap
totiter = 0
traniter = 0
tranpoints = 0
accept = 0
rejected = 0
matrix size = 8
fillins = 1
solver = Normal

