Circuit: * C:\Users\Dougl\OneDrive\Ham Radio\KiCad Files\W7ZOI Spectrum Analyzer\resolution-filters\resolution-filters\resolution-filters-spice\staged-300khz-bandwith-10mhz-lc-filter.asc


Date: Mon Feb 20 13:15:29 2023
Total elapsed time: 0.154 seconds.

tnom = 27
temp = 27
method = trap
totiter = 0
traniter = 0
tranpoints = 0
accept = 0
rejected = 0
matrix size = 7
fillins = 0
solver = Normal

